/*--------------------------------*- C++ -*----------------------------------*\
| =========                 |                                                 |
| \\      /  F ield         | OpenFOAM: The Open Source CFD Toolbox           |
|  \\    /   O peration     | Version:  v2012                                 |
|   \\  /    A nd           | Website:  www.openfoam.com                      |
|    \\/     M anipulation  |                                                 |
\*---------------------------------------------------------------------------*/
FoamFile
{
    version     2.0;
    format      ascii;
    class       dictionary;
    location    "system";
    object      blockMeshDict;
}
// * * * * * * * * * * * * * * * * * * * * * * * * * * * * * * * * * * * * * //

scale 0.01;

nx  150;
ny #calc "std::floor($nx/1)";
vertices
(
   //x y z
    (0 0 0)		            // 0  
    (89.2 0 0)			    // 1	
    (89.2 89.2 0)			// 2
    (0 89.2 0)			    // 3

    (0 0 0.1)               // 4
    (89.2 0 0.1)            // 5
    (89.2 89.2 0.1)	        // 6
    (0 89.2 0.1)            // 7
);		            

blocks
(
    hex (0 1 2 3 4 5 6 7) ($nx $nx 1) simpleGrading (1 1 1)
);

edges
(
);

patches
(
    wall leftWall
    (
        (0 4 7 3)
    )
    wall rightWall
    (
        (1 2 6 5)
    )
    wall lowerWall
    (
        (0 1 5 4)
    )
    patch atmosphere
    (
        (2 3 7 6)
    )
);

mergePatchPairs
(
);

// ************************************************************************* //
